Circuit: * C:\Projects\Patrol-Bot\Electronics\Draft1.asc

WARNING: Specified period is not longer than the sum of Trise, Tfall, and Ton for v2.  Increasing period to 5
Limiting rise time of source v2 to 9.76996e-016
Limiting fall time of source v2 to 9.76996e-016
Direct Newton iteration for .op point succeeded.

Date: Thu Dec 30 08:57:13 2021
Total elapsed time: 0.082 seconds.

tnom = 27
temp = 27
method = modified trap
totiter = 2338
traniter = 2324
tranpoints = 1098
accept = 1084
rejected = 14
matrix size = 15
fillins = 0
solver = Normal
Matrix Compiler1: 640 bytes object code size  0.1/0.1/[0.1]
Matrix Compiler2: 1.16 KB object code size  0.1/0.1/[0.1]

