Circuit: * C:\Projects\Patrol-Bot\Electronics\Draft1.asc

Direct Newton iteration for .op point succeeded.

Date: Tue Dec 28 14:17:48 2021
Total elapsed time: 0.057 seconds.

tnom = 27
temp = 27
method = modified trap
totiter = 2088
traniter = 2082
tranpoints = 1042
accept = 1042
rejected = 0
matrix size = 9
fillins = 0
solver = Normal
Matrix Compiler1: 296 bytes object code size  0.1/0.1/[0.1]
Matrix Compiler2: 615 bytes object code size  0.1/0.2/[0.1]

