Circuit: * C:\Projects\Patrol-Bot\Electronics\Photo_Resistor_Low_Pass_Filter_Simulation.asc

WARNING: Less than two connections to node NC_01.  This node is used by V2.
WARNING: Less than two connections to node N003.  This node is used by R5.
Direct Newton iteration for .op point succeeded.

Date: Fri Dec 24 13:11:08 2021
Total elapsed time: 16.803 seconds.

tnom = 27
temp = 27
method = modified trap
totiter = 40040009
traniter = 40040006
tranpoints = 20020004
accept = 12012013
rejected = 8007991
matrix size = 7
fillins = 0
solver = Normal
Matrix Compiler1: 124 bytes object code size  0.1/0.0/[0.0]
Matrix Compiler2: 325 bytes object code size  0.1/0.1/[0.0]

