Circuit: * C:\Projects\Patrol-Bot\Electronics\5V_Source_Switcher.asc

WARNING: Specified period is not longer than the sum of Trise, Tfall, and Ton for v2.  Increasing period to 5
Limiting rise time of source v2 to 9.76996e-016
Limiting fall time of source v2 to 9.76996e-016
WARNING: Node N007 is floating.
WARNING: Node N002 is floating.

WARNING: Less than two connections to node 10V_SIG.  This node is used by V2.
WARNING: Less than two connections to node N005.  This node is used by M5.
Direct Newton iteration for .op point succeeded.

Date: Thu Dec 30 10:14:02 2021
Total elapsed time: 0.059 seconds.

tnom = 27
temp = 27
method = modified trap
totiter = 2133
traniter = 2118
tranpoints = 1060
accept = 1057
rejected = 3
matrix size = 18
fillins = 0
solver = Normal
Matrix Compiler1: 798 bytes object code size  0.1/0.1/[0.1]
Matrix Compiler2: off  [0.1]/0.2/0.1

