Circuit: * C:\Projects\Patrol-Bot\Electronics\Draft2.asc

WARNING: Specified period is not longer than the sum of Trise, Tfall, and Ton for v1.  Increasing period to 5
Limiting rise time of source v1 to 9.76996e-016
Limiting fall time of source v1 to 9.76996e-016
Direct Newton iteration for .op point succeeded.
Heightened Def Con from 5 +++++++++++++++++++++++to 5
Heightened Def Con from 10 ++++++++++++++to 10

Date: Thu Dec 30 10:24:21 2021
Total elapsed time: 0.065 seconds.

tnom = 27
temp = 27
method = modified trap
totiter = 5415
traniter = 5406
tranpoints = 1392
accept = 1141
rejected = 290
matrix size = 11
fillins = 0
solver = Normal
Matrix Compiler1: 396 bytes object code size  0.1/0.1/[0.0]
Matrix Compiler2: 827 bytes object code size  0.1/0.3/[0.1]

