Circuit: * C:\Projects\Patrol-Bot\Electronics\Draft1.asc

Direct Newton iteration for .op point succeeded.

Date: Fri Jan 21 08:16:30 2022
Total elapsed time: 0.025 seconds.

tnom = 27
temp = 27
method = modified trap
totiter = 2085
traniter = 2082
tranpoints = 1042
accept = 1042
rejected = 0
matrix size = 8
fillins = 2
solver = Normal
Matrix Compiler1: 362 bytes object code size  0.1/0.1/[0.0]
Matrix Compiler2: 574 bytes object code size  0.1/0.1/[0.1]

