Circuit: * C:\Projects\Patrol-Bot\Electronics\Draft4.asc

.OP point found by inspection.

Date: Thu Dec 30 10:31:38 2021
Total elapsed time: 0.098 seconds.

tnom = 27
temp = 27
method = modified trap
totiter = 37206
traniter = 37206
tranpoints = 18604
accept = 12421
rejected = 6183
matrix size = 3
fillins = 0
solver = Normal
Matrix Compiler1: 50 bytes object code size  0.0/0.0/[0.0]
Matrix Compiler2: 175 bytes object code size  0.0/0.0/[0.0]

