Circuit: * C:\Projects\Patrol-Bot\Electronics\Low_Pass_Filters.asc

Direct Newton iteration for .op point succeeded.

Date: Thu Dec 30 15:03:47 2021
Total elapsed time: 0.031 seconds.

tnom = 27
temp = 27
method = modified trap
totiter = 2103
traniter = 2100
tranpoints = 1051
accept = 1050
rejected = 1
matrix size = 5
fillins = 0
solver = Normal
Matrix Compiler1: 96 bytes object code size  0.0/0.0/[0.0]
Matrix Compiler2: 267 bytes object code size  0.1/0.1/[0.0]

