Circuit: * C:\Projects\Patrol-Bot\Model 2\Electronics\Power Switcher.asc

Direct Newton iteration for .op point succeeded.

Date: Tue Mar 15 19:46:13 2022
Total elapsed time: 0.180 seconds.

tnom = 27
temp = 27
method = modified trap
totiter = 12989
traniter = 12963
tranpoints = 4266
accept = 3477
rejected = 789
matrix size = 50
fillins = 30
solver = Normal
Matrix Compiler1: 4.45 KB object code size  1.0/0.7/[0.4]
Matrix Compiler2: 4.84 KB object code size  0.5/0.8/[0.5]

